Version 4.1
SHEET 1 3372 1844
WIRE -496 -176 -496 -256
WIRE -112 -176 -112 -256
WIRE 864 -144 864 -224
WIRE 1600 -144 1600 -224
WIRE 2320 -144 2320 -224
WIRE -496 -16 -496 -96
WIRE -112 -16 -112 -96
WIRE 864 -16 864 -64
WIRE 1600 -16 1600 -64
WIRE 2320 -16 2320 -64
WIRE 128 784 128 688
WIRE 96 800 -272 800
WIRE 2064 800 2064 704
WIRE 608 816 160 816
WIRE 2032 816 1664 816
WIRE 96 832 -96 832
WIRE 2544 832 2096 832
WIRE 2032 848 1840 848
WIRE -848 896 -848 864
WIRE 1088 912 1088 880
WIRE 128 928 128 848
WIRE 2064 944 2064 864
WIRE -848 1040 -848 976
WIRE -720 1040 -848 1040
WIRE 1088 1056 1088 992
WIRE 1216 1056 1088 1056
WIRE -720 1072 -720 1040
WIRE 1216 1088 1216 1056
WIRE -848 1120 -848 1040
WIRE 1088 1136 1088 1056
WIRE 192 1152 192 1088
WIRE -720 1168 -720 1152
WIRE -608 1168 -720 1168
WIRE 2128 1168 2128 1104
WIRE -720 1184 -720 1168
WIRE 1216 1184 1216 1168
WIRE 1328 1184 1216 1184
WIRE 368 1200 256 1200
WIRE 608 1200 608 816
WIRE 608 1200 448 1200
WIRE 1216 1200 1216 1184
WIRE 2304 1216 2192 1216
WIRE 2544 1216 2544 832
WIRE 2544 1216 2384 1216
WIRE -848 1328 -848 1184
WIRE -720 1328 -720 1264
WIRE 1088 1344 1088 1200
WIRE 1216 1344 1216 1280
WIRE -272 1424 -272 800
WIRE -32 1424 -272 1424
WIRE 192 1424 192 1248
WIRE 192 1424 48 1424
WIRE 288 1424 192 1424
WIRE 1664 1440 1664 816
WIRE 1904 1440 1664 1440
WIRE 2128 1440 2128 1264
WIRE 2128 1440 1984 1440
WIRE 2224 1440 2128 1440
WIRE -272 1472 -272 1424
WIRE 1664 1472 1664 1440
WIRE -272 1584 -272 1552
WIRE 1664 1584 1664 1552
FLAG -608 1168 Vref+
FLAG -848 1328 0
FLAG -848 864 +VCC
FLAG -720 1328 0
FLAG 128 688 +VCC
FLAG 128 928 -5V
FLAG 192 1088 +VCC
FLAG -96 832 Vref+
FLAG -272 1584 0
FLAG 288 1424 VOPos
FLAG 1328 1184 Vref-
FLAG 1088 1344 0
FLAG 1088 880 -VCC
FLAG 1216 1344 0
FLAG 2064 704 +5V
FLAG 2064 944 -VCC
FLAG 2128 1104 -VCC
FLAG 1840 848 Vref-
FLAG 1664 1584 0
FLAG 2224 1440 VONeg
FLAG 864 -16 0
FLAG 864 -224 2.1V
FLAG 1600 -16 0
FLAG 1600 -224 +5V
FLAG 2320 -16 0
FLAG 2320 -224 -5V
FLAG -496 -16 0
FLAG -496 -256 +VCC
FLAG -112 -16 0
FLAG -112 -256 -VCC
SYMBOL res -864 880 R0
SYMATTR InstName R7
SYMATTR Value 560
SYMBOL zener -832 1184 R180
WINDOW 0 24 64 Left 2
WINDOW 3 24 0 Left 2
SYMATTR InstName D9
SYMATTR Value DI_1N4736A
SYMATTR Prefix X
SYMBOL res -704 1168 R180
WINDOW 0 36 76 Left 2
WINDOW 3 36 40 Left 2
SYMATTR InstName R8
SYMATTR Value 10k
SYMBOL res -704 1280 R180
WINDOW 0 36 76 Left 2
WINDOW 3 36 40 Left 2
SYMATTR InstName R9
SYMATTR Value 0
SYMBOL npn 256 1152 M0
SYMATTR InstName Q3
SYMATTR Value TIP41C
SYMBOL res 464 1184 R90
WINDOW 0 0 56 VBottom 2
WINDOW 3 32 56 VTop 2
SYMATTR InstName R10
SYMATTR Value 82
SYMBOL res 64 1408 R90
WINDOW 0 0 56 VBottom 2
WINDOW 3 32 56 VTop 2
SYMATTR InstName R13
SYMATTR Value 6.8k
SYMBOL res 1072 896 R0
SYMATTR InstName R15
SYMATTR Value 560
SYMBOL zener 1072 1136 R0
WINDOW 0 -47 0 Left 2
WINDOW 3 -151 65 Left 2
SYMATTR InstName D10
SYMATTR Value DI_1N4736A
SYMATTR Prefix X
SYMBOL res 1232 1184 R180
WINDOW 0 36 76 Left 2
WINDOW 3 36 40 Left 2
SYMATTR InstName R16
SYMATTR Value 0
SYMBOL res 1232 1296 R180
WINDOW 0 36 76 Left 2
WINDOW 3 36 40 Left 2
SYMATTR InstName R17
SYMATTR Value 10k
SYMBOL res 2400 1200 R90
WINDOW 0 0 56 VBottom 2
WINDOW 3 32 56 VTop 2
SYMATTR InstName R18
SYMATTR Value 82
SYMBOL res 2000 1424 R90
WINDOW 0 0 56 VBottom 2
WINDOW 3 32 56 VTop 2
SYMATTR InstName R21
SYMATTR Value 6.8k
SYMBOL voltage 864 -160 R0
WINDOW 123 0 0 Left 0
WINDOW 39 0 0 Left 0
SYMATTR InstName V3
SYMATTR Value 2.1
SYMBOL voltage 1600 -160 R0
WINDOW 123 0 0 Left 0
WINDOW 39 0 0 Left 0
SYMATTR InstName V4
SYMATTR Value 5
SYMBOL voltage 2320 -160 R0
WINDOW 123 0 0 Left 0
WINDOW 39 0 0 Left 0
SYMATTR InstName V5
SYMATTR Value -5
SYMBOL res -288 1456 R0
SYMATTR InstName R2
SYMATTR Value 5.6k
SYMBOL res 1648 1456 R0
SYMATTR InstName R3
SYMATTR Value 5.6k
SYMBOL pnp 2192 1168 M0
SYMATTR InstName Q1
SYMATTR Value TIP42C
SYMBOL OpAmps\\opamp2 128 752 R0
SYMATTR InstName U1
SYMATTR Value TL074
SYMBOL OpAmps\\opamp2 2064 768 R0
SYMATTR InstName U2
SYMATTR Value TL074
SYMBOL voltage -496 -192 R0
WINDOW 123 0 0 Left 0
WINDOW 39 0 0 Left 0
SYMATTR InstName V1
SYMATTR Value 22
SYMBOL voltage -112 -192 R0
WINDOW 123 0 0 Left 0
WINDOW 39 0 0 Left 0
SYMATTR InstName V2
SYMATTR Value -22
TEXT -368 -576 Left 3 ;Retificação
TEXT 728 -544 Left 3 ;Fonte Auxiliar 2.1V
TEXT 1432 -544 Left 3 ;Fonte Auxiliar +5V
TEXT 2200 -544 Left 3 ;Fonte Auxiliar -5V
TEXT -928 440 Left 5 ;Parte Positiva
TEXT -928 512 Left 3 ;Tensão de Referência +
TEXT 48 520 Left 3 ;Amplificação+
TEXT 1008 456 Left 5 ;Parte Negativa
TEXT 1008 528 Left 3 ;Tensão de Referência -
TEXT 1984 536 Left 3 ;Amplificação-
TEXT -1992 128 Left 3 !.lib lib/1N4736A.lib
TEXT -1992 72 Left 5 ;Libs
TEXT -1992 160 Left 3 !.lib lib/TIP4XC.lib
TEXT -1992 192 Left 3 !.lib lib/1N4001.lib
TEXT -1992 224 Left 3 !.lib lib/TL074.lib
TEXT -1992 1608 Left 2 !.tran 1
