Version 4.1
SHEET 1 3372 1844
WIRE 1408 -352 1296 -352
WIRE 1536 -352 1408 -352
WIRE 1808 -352 1632 -352
WIRE 2176 -352 2064 -352
WIRE 2304 -352 2176 -352
WIRE 2576 -352 2400 -352
WIRE 800 -336 800 -368
WIRE -624 -272 -896 -272
WIRE -576 -272 -624 -272
WIRE -336 -272 -512 -272
WIRE 48 -272 -336 -272
WIRE 176 -272 48 -272
WIRE 1408 -272 1408 -352
WIRE 2176 -272 2176 -352
WIRE 48 -224 48 -272
WIRE -896 -192 -896 -272
WIRE 800 -192 800 -256
WIRE 928 -192 800 -192
WIRE 928 -160 928 -192
WIRE -624 -144 -624 -272
WIRE -576 -144 -624 -144
WIRE -400 -144 -512 -144
WIRE 1408 -144 1408 -192
WIRE 1584 -144 1584 -288
WIRE 1584 -144 1408 -144
WIRE 2176 -144 2176 -192
WIRE 2352 -144 2352 -288
WIRE 2352 -144 2176 -144
WIRE 48 -112 48 -160
WIRE 800 -112 800 -192
WIRE 1584 -80 1584 -144
WIRE 2352 -80 2352 -144
WIRE -896 -64 -896 -112
WIRE -768 -64 -896 -64
WIRE 928 -64 928 -80
WIRE 1040 -64 928 -64
WIRE 928 -48 928 -64
WIRE -768 -32 -768 -64
WIRE -896 -16 -896 -64
WIRE -576 16 -624 16
WIRE -336 16 -336 -272
WIRE -336 16 -512 16
WIRE 48 48 48 16
WIRE 800 96 800 -48
WIRE 928 96 928 32
WIRE 1584 112 1584 -16
WIRE 2352 112 2352 -16
WIRE -896 160 -896 64
WIRE -624 160 -624 16
WIRE -624 160 -896 160
WIRE -576 160 -624 160
WIRE -400 160 -400 -144
WIRE -400 160 -512 160
WIRE 48 160 48 112
WIRE 48 160 -400 160
WIRE 192 160 48 160
WIRE 128 784 128 704
WIRE 96 800 -272 800
WIRE 2064 800 2064 704
WIRE 608 816 160 816
WIRE 2032 816 1664 816
WIRE 96 832 -96 832
WIRE 2544 832 2096 832
WIRE 2032 848 1840 848
WIRE -848 896 -848 864
WIRE 1088 912 1088 880
WIRE 128 928 128 848
WIRE 2064 944 2064 864
WIRE -848 1040 -848 976
WIRE -720 1040 -848 1040
WIRE 1088 1056 1088 992
WIRE 1216 1056 1088 1056
WIRE -720 1072 -720 1040
WIRE 1216 1088 1216 1056
WIRE -848 1120 -848 1040
WIRE 1088 1136 1088 1056
WIRE 192 1152 192 1088
WIRE -720 1168 -720 1152
WIRE -608 1168 -720 1168
WIRE 2128 1168 2128 1104
WIRE -720 1184 -720 1168
WIRE 1216 1184 1216 1168
WIRE 1328 1184 1216 1184
WIRE 368 1200 256 1200
WIRE 608 1200 608 816
WIRE 608 1200 448 1200
WIRE 1216 1200 1216 1184
WIRE 2304 1216 2192 1216
WIRE 2544 1216 2544 832
WIRE 2544 1216 2384 1216
WIRE -848 1328 -848 1184
WIRE -720 1328 -720 1264
WIRE 1088 1344 1088 1200
WIRE 1216 1344 1216 1280
WIRE -272 1424 -272 800
WIRE -32 1424 -272 1424
WIRE 192 1424 192 1248
WIRE 192 1424 48 1424
WIRE 256 1424 192 1424
WIRE 288 1424 256 1424
WIRE 1664 1440 1664 816
WIRE 1904 1440 1664 1440
WIRE 2128 1440 2128 1264
WIRE 2128 1440 1984 1440
WIRE 2224 1440 2128 1440
WIRE -272 1472 -272 1424
WIRE 1664 1472 1664 1440
WIRE -272 1584 -272 1552
WIRE 1664 1584 1664 1552
FLAG -608 1168 Vref+
FLAG -848 1328 0
FLAG -848 864 +VCC
FLAG -720 1328 0
FLAG 128 704 +VCC
FLAG 128 928 -5V
FLAG 192 1088 +VCC
FLAG -96 832 Vref+
FLAG -272 1584 0
FLAG 288 1424 VOPos
FLAG 1328 1184 Vref-
FLAG 1088 1344 0
FLAG 1088 880 -VCC
FLAG 1216 1344 0
FLAG 2064 704 +5V
FLAG 2064 944 -VCC
FLAG 2128 1104 -VCC
FLAG 1840 848 Vref-
FLAG 1664 1584 0
FLAG 2224 1440 VONeg
FLAG -768 -32 0
FLAG 176 -272 +VCC
FLAG 192 160 -VCC
FLAG 48 -112 0
FLAG 48 16 0
FLAG 1584 112 0
FLAG 1296 -352 +VCC
FLAG 1808 -352 +5V
FLAG 2352 112 0
FLAG 2064 -352 -VCC
FLAG 2576 -352 -5V
FLAG 256 1504 0
FLAG 1040 -64 2.1V
FLAG 800 96 0
FLAG 800 -368 +VCC
FLAG 928 96 0
SYMBOL res -864 880 R0
SYMATTR InstName R7
SYMATTR Value 1k
SYMBOL zener -832 1184 R180
WINDOW 0 24 64 Left 2
WINDOW 3 24 0 Left 2
SYMATTR InstName D9
SYMATTR Value DI_1N4734A
SYMATTR Prefix X
SYMBOL res -704 1168 R180
WINDOW 0 36 76 Left 2
WINDOW 3 36 40 Left 2
SYMATTR InstName R8
SYMATTR Value 0
SYMBOL res -704 1280 R180
WINDOW 0 36 76 Left 2
WINDOW 3 36 40 Left 2
SYMATTR InstName R9
SYMATTR Value 10k
SYMBOL npn 256 1152 M0
SYMATTR InstName Q3
SYMATTR Value TIP41C
SYMBOL res 464 1184 R90
WINDOW 0 0 56 VBottom 2
WINDOW 3 32 56 VTop 2
SYMATTR InstName R10
SYMATTR Value 200
SYMBOL res 64 1408 R90
WINDOW 0 0 56 VBottom 2
WINDOW 3 32 56 VTop 2
SYMATTR InstName R13
SYMATTR Value 8.2k
SYMBOL res 1072 896 R0
SYMATTR InstName R15
SYMATTR Value 1k
SYMBOL zener 1072 1136 R0
WINDOW 0 -47 0 Left 2
WINDOW 3 -151 65 Left 2
SYMATTR InstName D10
SYMATTR Value DI_1N4734A
SYMATTR Prefix X
SYMBOL res 1232 1184 R180
WINDOW 0 36 76 Left 2
WINDOW 3 36 40 Left 2
SYMATTR InstName R16
SYMATTR Value 0
SYMBOL res 1232 1296 R180
WINDOW 0 36 76 Left 2
WINDOW 3 36 40 Left 2
SYMATTR InstName R17
SYMATTR Value 10k
SYMBOL res 2400 1200 R90
WINDOW 0 0 56 VBottom 2
WINDOW 3 32 56 VTop 2
SYMATTR InstName R18
SYMATTR Value 200
SYMBOL res 2000 1424 R90
WINDOW 0 0 56 VBottom 2
WINDOW 3 32 56 VTop 2
SYMATTR InstName R21
SYMATTR Value 8.2k
SYMBOL res -288 1456 R0
SYMATTR InstName R2
SYMATTR Value 4.7k
SYMBOL res 1648 1456 R0
SYMATTR InstName R3
SYMATTR Value 4.7k
SYMBOL pnp 2192 1168 M0
SYMATTR InstName Q1
SYMATTR Value TIP42C
SYMBOL diode -576 -256 R270
WINDOW 0 32 32 VTop 2
WINDOW 3 0 32 VBottom 2
SYMATTR InstName D1
SYMATTR Value DI_1N4001
SYMBOL diode -512 -160 R90
WINDOW 0 0 32 VBottom 2
WINDOW 3 32 32 VTop 2
SYMATTR InstName D2
SYMATTR Value DI_1N4001
SYMBOL diode -576 32 R270
WINDOW 0 32 32 VTop 2
WINDOW 3 0 32 VBottom 2
SYMATTR InstName D3
SYMATTR Value DI_1N4001
SYMBOL diode -512 144 R90
WINDOW 0 0 32 VBottom 2
WINDOW 3 32 32 VTop 2
SYMATTR InstName D4
SYMATTR Value DI_1N4001
SYMBOL voltage -896 -208 R0
WINDOW 123 0 0 Left 0
WINDOW 39 0 0 Left 0
SYMATTR InstName V1
SYMATTR Value SINE(0 22.9 60)
SYMBOL voltage -896 -32 R0
WINDOW 123 0 0 Left 0
WINDOW 39 0 0 Left 0
SYMATTR InstName V2
SYMATTR Value SINE(0 22.9 60)
SYMBOL polcap 32 -224 R0
SYMATTR InstName C2
SYMATTR Value 4700µF
SYMBOL polcap 32 48 R0
SYMATTR InstName C4
SYMATTR Value 4700µF
SYMBOL npn 1536 -288 R270
SYMATTR InstName Q2
SYMATTR Value TIP41C
SYMBOL res 1392 -288 R0
SYMATTR InstName R1
SYMATTR Value 1k
SYMBOL zener 1600 -16 R180
WINDOW 0 24 64 Left 2
WINDOW 3 24 0 Left 2
SYMATTR InstName D5
SYMATTR Value DI_1N4734A
SYMATTR Prefix X
SYMBOL res 2160 -288 R0
SYMATTR InstName R4
SYMATTR Value 1k
SYMBOL zener 2336 -80 R0
SYMATTR InstName D6
SYMATTR Value DI_1N4734A
SYMATTR Prefix X
SYMBOL pnp 2304 -288 R270
SYMATTR InstName Q4
SYMATTR Value TIP42C
SYMBOL OpAmps\\UniversalOpAmp2 128 816 R0
SYMATTR InstName U1
SYMATTR Value2 Avol=2e5 GBW=3Meg Slew=13Meg
SYMATTR SpiceLine Ilimit=40m Rail=1.5 Vos=3m
SYMATTR SpiceLine2 En=15n Enk=0 In=20p Ink=0 Rin=10e12
SYMBOL OpAmps\\UniversalOpAmp2 2064 832 R0
SYMATTR InstName U2
SYMATTR Value2 Avol=2e5 GBW=3Meg Slew=13Meg
SYMATTR SpiceLine Ilimit=40m Rail=1.5 Vos=3m
SYMATTR SpiceLine2 En=15n Enk=0 In=20p Ink=0 Rin=10e12
SYMBOL res 240 1408 R0
SYMATTR InstName R5
SYMATTR Value 15
SYMBOL res 784 -352 R0
SYMATTR InstName R6
SYMATTR Value 1k
SYMBOL zener 816 -48 R180
WINDOW 0 24 64 Left 2
WINDOW 3 24 0 Left 2
SYMATTR InstName D7
SYMATTR Value DI_1N4734A
SYMATTR Prefix X
SYMBOL res 944 -64 R180
WINDOW 0 36 76 Left 2
WINDOW 3 36 40 Left 2
SYMATTR InstName R11
SYMATTR Value 3.8k
SYMBOL res 944 48 R180
WINDOW 0 36 76 Left 2
WINDOW 3 36 40 Left 2
SYMATTR InstName R12
SYMATTR Value 6.2k
TEXT 728 -544 Left 3 ;Fonte Auxiliar 2.1V
TEXT 1432 -544 Left 3 ;Fonte Auxiliar +5V
TEXT 2200 -544 Left 3 ;Fonte Auxiliar -5V
TEXT -928 440 Left 5 ;Parte Positiva
TEXT -928 512 Left 3 ;Tensão de Referência +
TEXT 48 520 Left 3 ;Amplificação+
TEXT 1008 456 Left 5 ;Parte Negativa
TEXT 1008 528 Left 3 ;Tensão de Referência -
TEXT 1984 536 Left 3 ;Amplificação-
TEXT -1992 128 Left 3 !.lib lib/1N473XA.lib
TEXT -1992 72 Left 5 ;Libs
TEXT -1992 160 Left 3 !.lib lib/TIP4XC.lib
TEXT -1992 192 Left 3 !.lib lib/1N4001.lib
TEXT -1992 224 Left 3 !.lib lib/TL074.lib
TEXT -1984 328 Left 2 !.tran 0 5.033 5 10u
TEXT -336 -544 Left 3 ;Retificação
