Version 4.1
SHEET 1 4036 3412
WIRE -48 -352 -80 -352
WIRE 64 -352 32 -352
WIRE 1408 -352 1296 -352
WIRE 1536 -352 1408 -352
WIRE 1808 -352 1632 -352
WIRE 2176 -352 2064 -352
WIRE 2304 -352 2176 -352
WIRE 2576 -352 2400 -352
WIRE 800 -336 800 -368
WIRE -624 -272 -896 -272
WIRE -576 -272 -624 -272
WIRE -336 -272 -512 -272
WIRE -80 -272 -80 -352
WIRE -80 -272 -336 -272
WIRE 64 -272 -80 -272
WIRE 1408 -272 1408 -352
WIRE 2176 -272 2176 -352
WIRE -80 -224 -80 -272
WIRE -896 -192 -896 -272
WIRE 800 -192 800 -256
WIRE 928 -192 800 -192
WIRE 928 -160 928 -192
WIRE -624 -144 -624 -272
WIRE -576 -144 -624 -144
WIRE -400 -144 -512 -144
WIRE 1408 -144 1408 -192
WIRE 1584 -144 1584 -288
WIRE 1584 -144 1408 -144
WIRE 2176 -144 2176 -192
WIRE 2352 -144 2352 -288
WIRE 2352 -144 2176 -144
WIRE -80 -112 -80 -160
WIRE 800 -112 800 -192
WIRE 1584 -80 1584 -144
WIRE 2352 -80 2352 -144
WIRE -896 -64 -896 -112
WIRE -768 -64 -896 -64
WIRE 928 -64 928 -80
WIRE 1040 -64 928 -64
WIRE 928 -48 928 -64
WIRE -768 -32 -768 -64
WIRE -896 -16 -896 -64
WIRE -576 16 -624 16
WIRE -336 16 -336 -272
WIRE -336 16 -512 16
WIRE -80 48 -80 16
WIRE 800 96 800 -48
WIRE 928 96 928 32
WIRE 1584 112 1584 -16
WIRE 2352 112 2352 -16
WIRE -896 160 -896 64
WIRE -624 160 -624 16
WIRE -624 160 -896 160
WIRE -576 160 -624 160
WIRE -400 160 -400 -144
WIRE -400 160 -512 160
WIRE -80 160 -80 112
WIRE -80 160 -400 160
WIRE 64 160 -80 160
WIRE -80 256 -80 160
WIRE -48 256 -80 256
WIRE 64 256 32 256
WIRE 128 784 128 720
WIRE 96 800 -272 800
WIRE 2064 800 2064 704
WIRE 608 816 160 816
WIRE 2032 816 1664 816
WIRE 96 832 -96 832
WIRE 2544 832 2096 832
WIRE 2032 848 1840 848
WIRE -848 896 -848 864
WIRE 1088 912 1088 880
WIRE 128 928 128 848
WIRE 2064 944 2064 864
WIRE -848 1040 -848 976
WIRE -848 1040 -944 1040
WIRE -720 1040 -848 1040
WIRE 1088 1056 1088 992
WIRE 1088 1056 1008 1056
WIRE 1216 1056 1088 1056
WIRE -720 1072 -720 1040
WIRE 1216 1088 1216 1056
WIRE -848 1120 -848 1040
WIRE 1088 1136 1088 1056
WIRE 192 1152 192 1088
WIRE -720 1168 -720 1152
WIRE -608 1168 -720 1168
WIRE 2128 1168 2128 1104
WIRE -720 1184 -720 1168
WIRE 1216 1184 1216 1168
WIRE 1328 1184 1216 1184
WIRE 368 1200 256 1200
WIRE 608 1200 608 816
WIRE 608 1200 448 1200
WIRE 1216 1200 1216 1184
WIRE 2304 1216 2192 1216
WIRE 2544 1216 2544 832
WIRE 2544 1216 2384 1216
WIRE 192 1280 192 1248
WIRE 288 1280 192 1280
WIRE 192 1296 192 1280
WIRE 2128 1296 2128 1264
WIRE 2240 1296 2128 1296
WIRE 2128 1312 2128 1296
WIRE -848 1328 -848 1184
WIRE -720 1328 -720 1264
WIRE 1088 1344 1088 1200
WIRE 1216 1344 1216 1280
WIRE -272 1424 -272 800
WIRE -32 1424 -272 1424
WIRE 192 1424 192 1376
WIRE 192 1424 48 1424
WIRE 256 1424 192 1424
WIRE 432 1424 256 1424
WIRE 496 1424 432 1424
WIRE 1664 1440 1664 816
WIRE 1904 1440 1664 1440
WIRE 2128 1440 2128 1392
WIRE 2128 1440 1984 1440
WIRE 2192 1440 2128 1440
WIRE 2368 1440 2192 1440
WIRE 2432 1440 2368 1440
WIRE -272 1472 -272 1424
WIRE 1664 1472 1664 1440
WIRE 432 1568 432 1424
WIRE -272 1584 -272 1552
WIRE 1664 1584 1664 1552
WIRE 2368 1584 2368 1440
WIRE 368 1616 272 1616
WIRE 2304 1632 2208 1632
WIRE 272 1696 272 1616
WIRE 432 1696 432 1664
WIRE 2208 1712 2208 1632
WIRE 2368 1712 2368 1680
WIRE 272 1824 272 1776
WIRE 432 1824 432 1776
WIRE 2208 1840 2208 1792
WIRE 2368 1840 2368 1792
WIRE 1360 1952 1216 1952
WIRE 1600 1952 1440 1952
WIRE -720 1968 -864 1968
WIRE -480 1968 -640 1968
WIRE 2784 2016 2784 1952
WIRE 3232 2016 3232 1952
WIRE 1072 2048 1008 2048
WIRE 1216 2048 1216 1952
WIRE 1216 2048 1152 2048
WIRE -1008 2064 -1072 2064
WIRE -864 2064 -864 1968
WIRE -864 2064 -928 2064
WIRE 2704 2064 2656 2064
WIRE 2928 2064 2864 2064
WIRE 3152 2064 3104 2064
WIRE 3376 2064 3312 2064
WIRE 1760 2096 1696 2096
WIRE -320 2112 -384 2112
WIRE 1216 2112 1216 2048
WIRE 1376 2112 1216 2112
WIRE 1984 2112 1824 2112
WIRE 2112 2112 2048 2112
WIRE 2256 2112 2112 2112
WIRE 2704 2112 2656 2112
WIRE 2928 2112 2880 2112
WIRE 3152 2112 3104 2112
WIRE 3376 2112 3328 2112
WIRE -864 2128 -864 2064
WIRE -704 2128 -864 2128
WIRE -160 2128 -256 2128
WIRE -16 2128 -80 2128
WIRE 112 2128 48 2128
WIRE 432 2128 112 2128
WIRE 496 2128 432 2128
WIRE 1600 2128 1600 1952
WIRE 1600 2128 1440 2128
WIRE 1760 2128 1600 2128
WIRE -480 2144 -480 1968
WIRE -480 2144 -640 2144
WIRE -320 2144 -480 2144
WIRE 1072 2144 1008 2144
WIRE 1280 2144 1152 2144
WIRE 1376 2144 1280 2144
WIRE 2112 2144 2112 2112
WIRE -1008 2160 -1072 2160
WIRE -800 2160 -928 2160
WIRE -704 2160 -800 2160
WIRE 112 2160 112 2128
WIRE 432 2160 432 2128
WIRE 1280 2176 1280 2144
WIRE -800 2192 -800 2160
WIRE 2784 2208 2784 2160
WIRE 3232 2208 3232 2160
WIRE 2112 2256 2112 2224
WIRE 112 2272 112 2240
WIRE 432 2272 432 2224
WIRE 1280 2288 1280 2256
WIRE -800 2304 -800 2272
WIRE 1792 2512 1728 2512
WIRE 1936 2512 1872 2512
WIRE -368 2576 -368 2528
WIRE 1280 2592 1280 2544
WIRE -720 2608 -720 2544
WIRE 1008 2608 1008 2544
WIRE 80 2640 80 2528
WIRE 2160 2656 2160 2560
WIRE 1824 2672 1824 2640
WIRE -368 2688 -464 2688
WIRE -112 2688 -160 2688
WIRE 16 2688 -32 2688
WIRE 1616 2688 1584 2688
WIRE 1728 2688 1728 2512
WIRE 1728 2688 1696 2688
WIRE 1792 2688 1728 2688
WIRE 1376 2704 1280 2704
WIRE 1936 2704 1936 2512
WIRE 1936 2704 1856 2704
WIRE 1984 2704 1936 2704
WIRE 2096 2704 2064 2704
WIRE -720 2720 -720 2672
WIRE 1008 2720 1008 2672
WIRE 1792 2720 1728 2720
WIRE -368 2736 -368 2688
WIRE 1280 2752 1280 2704
WIRE 1824 2784 1824 2736
WIRE 1728 2800 1728 2720
WIRE 2160 2800 2160 2752
WIRE -720 2864 -720 2800
WIRE -368 2864 -368 2816
WIRE 80 2864 80 2736
WIRE 1008 2864 1008 2800
WIRE 1280 2880 1280 2832
FLAG -608 1168 Vref+
FLAG -848 1328 0
FLAG -848 864 +VCC
FLAG -720 1328 0
FLAG 128 928 -5V
FLAG 192 1088 +VCC
FLAG -96 832 Vref+
FLAG -272 1584 0
FLAG 496 1424 VOPos
FLAG 1328 1184 Vref-
FLAG 1088 1344 0
FLAG 1088 880 -VCC
FLAG 1216 1344 0
FLAG 2064 704 +5V
FLAG 2128 1104 -VCC
FLAG 1840 848 Vref-
FLAG 1664 1584 0
FLAG 2432 1440 VONeg
FLAG -768 -32 0
FLAG 64 -272 +VCC
FLAG 64 160 -VCC
FLAG -80 -112 0
FLAG -80 16 0
FLAG 1584 112 0
FLAG 1296 -352 +VCC
FLAG 1808 -352 +5V
FLAG 2352 112 0
FLAG 2064 -352 -VCC
FLAG 2576 -352 -5V
FLAG 256 1504 0
FLAG 1040 -64 2.1V
FLAG 800 96 0
FLAG 800 -368 +VCC
FLAG 928 96 0
FLAG -800 2304 0
FLAG -1072 2064 VOPos
FLAG -1072 2160 V1
FLAG 288 1280 V1
FLAG -672 2112 +VCCA
FLAG -672 2176 -5V
FLAG -384 2112 2.1V
FLAG -288 2096 +VCCA
FLAG -288 2160 -5V
FLAG 432 2272 0
FLAG 112 2272 0
FLAG 496 2128 CLK1
FLAG 1280 2288 0
FLAG 1008 2048 V2
FLAG 1008 2144 VONeg
FLAG 1408 2096 +5V
FLAG 1408 2160 -VCCA
FLAG 1696 2096 2.1V
FLAG 1792 2080 +5V
FLAG 1792 2144 -VCCA
FLAG 2112 2256 0
FLAG 2256 2112 CLK2
FLAG 128 720 +VCCA
FLAG 2064 944 -VCCA
FLAG 2784 1952 0
FLAG 2928 2064 Prot1
FLAG 2928 2112 Q1#
FLAG 2656 2064 +5V
FLAG 2656 2112 CLK1
FLAG 2784 2208 RST1
FLAG 3232 1952 0
FLAG 3376 2064 Prot2
FLAG 3376 2112 Q2#
FLAG 3104 2064 +5V
FLAG 3104 2112 CLK2
FLAG 3232 2208 RST2
FLAG -720 2544 +5V
FLAG -720 2864 Q1#
FLAG -160 2688 Prot1
FLAG 80 2864 0
FLAG 80 2528 Vzp
FLAG -368 2864 0
FLAG -368 2528 +5V
FLAG 1008 2544 +5V
FLAG 1008 2864 Q1#
FLAG 1280 2880 0
FLAG 1376 2704 RST2
FLAG 1280 2544 +5V
FLAG -464 2688 RST1
FLAG 1008 1056 Vzn
FLAG 1824 2640 +5V
FLAG 1824 2784 -VCCA
FLAG 1728 2800 0
FLAG 1584 2688 Prot2
FLAG 2160 2800 0
FLAG 2160 2560 Vzn
FLAG 2240 1296 V2
FLAG 64 256 -VCCA
FLAG 64 -352 +VCCA
FLAG -944 1040 Vzp
FLAG 432 1824 0
FLAG 272 1824 0
FLAG 272 1616 CNTRLP
FLAG 2192 1520 0
FLAG 2368 1840 0
FLAG 2208 1840 0
FLAG 2208 1632 CNTRLN
SYMBOL res -864 880 R0
SYMATTR InstName R7
SYMATTR Value 1k
SYMBOL zener -832 1184 R180
WINDOW 0 24 64 Left 2
WINDOW 3 24 0 Left 2
SYMATTR InstName D9
SYMATTR Value DI_1N4734A
SYMATTR Prefix X
SYMBOL res -704 1168 R180
WINDOW 0 36 76 Left 2
WINDOW 3 36 40 Left 2
SYMATTR InstName R8
SYMATTR Value 0
SYMBOL res -704 1280 R180
WINDOW 0 36 76 Left 2
WINDOW 3 36 40 Left 2
SYMATTR InstName R9
SYMATTR Value 10k
SYMBOL npn 256 1152 M0
SYMATTR InstName Q3
SYMATTR Value TIP41C
SYMBOL res 464 1184 R90
WINDOW 0 0 56 VBottom 2
WINDOW 3 32 56 VTop 2
SYMATTR InstName R10
SYMATTR Value 160
SYMBOL res 64 1408 R90
WINDOW 0 0 56 VBottom 2
WINDOW 3 32 56 VTop 2
SYMATTR InstName R13
SYMATTR Value 8.2k
SYMBOL res 1072 896 R0
SYMATTR InstName R15
SYMATTR Value 1k
SYMBOL zener 1072 1136 R0
WINDOW 0 -47 0 Left 2
WINDOW 3 -151 65 Left 2
SYMATTR InstName D10
SYMATTR Value DI_1N4734A
SYMATTR Prefix X
SYMBOL res 1232 1184 R180
WINDOW 0 36 76 Left 2
WINDOW 3 36 40 Left 2
SYMATTR InstName R16
SYMATTR Value 0
SYMBOL res 1232 1296 R180
WINDOW 0 36 76 Left 2
WINDOW 3 36 40 Left 2
SYMATTR InstName R17
SYMATTR Value 10k
SYMBOL res 2400 1200 R90
WINDOW 0 0 56 VBottom 2
WINDOW 3 32 56 VTop 2
SYMATTR InstName R18
SYMATTR Value 160
SYMBOL res 2000 1424 R90
WINDOW 0 0 56 VBottom 2
WINDOW 3 32 56 VTop 2
SYMATTR InstName R21
SYMATTR Value 8.2k
SYMBOL res -288 1456 R0
SYMATTR InstName R2
SYMATTR Value 4.7k
SYMBOL res 1648 1456 R0
SYMATTR InstName R3
SYMATTR Value 4.7k
SYMBOL pnp 2192 1168 M0
SYMATTR InstName Q1
SYMATTR Value TIP42C
SYMBOL diode -576 -256 R270
WINDOW 0 32 32 VTop 2
WINDOW 3 0 32 VBottom 2
SYMATTR InstName D1
SYMATTR Value DI_1N4001
SYMBOL diode -512 -160 R90
WINDOW 0 0 32 VBottom 2
WINDOW 3 32 32 VTop 2
SYMATTR InstName D2
SYMATTR Value DI_1N4001
SYMBOL diode -576 32 R270
WINDOW 0 32 32 VTop 2
WINDOW 3 0 32 VBottom 2
SYMATTR InstName D3
SYMATTR Value DI_1N4001
SYMBOL diode -512 144 R90
WINDOW 0 0 32 VBottom 2
WINDOW 3 32 32 VTop 2
SYMATTR InstName D4
SYMATTR Value DI_1N4001
SYMBOL voltage -896 -208 R0
WINDOW 123 0 0 Left 0
WINDOW 39 0 0 Left 0
SYMATTR InstName V1
SYMATTR Value SINE(0 22.9 60)
SYMBOL voltage -896 -32 R0
WINDOW 123 0 0 Left 0
WINDOW 39 0 0 Left 0
SYMATTR InstName V2
SYMATTR Value SINE(0 22.9 60)
SYMBOL polcap -96 -224 R0
SYMATTR InstName C2
SYMATTR Value 4700µF
SYMBOL polcap -96 48 R0
SYMATTR InstName C4
SYMATTR Value 4700µF
SYMBOL npn 1536 -288 R270
SYMATTR InstName Q2
SYMATTR Value TIP41C
SYMBOL res 1392 -288 R0
SYMATTR InstName R1
SYMATTR Value 1k
SYMBOL zener 1600 -16 R180
WINDOW 0 24 64 Left 2
WINDOW 3 24 0 Left 2
SYMATTR InstName D5
SYMATTR Value DI_1N4734A
SYMATTR Prefix X
SYMBOL res 2160 -288 R0
SYMATTR InstName R4
SYMATTR Value 1k
SYMBOL zener 2336 -80 R0
SYMATTR InstName D6
SYMATTR Value DI_1N4734A
SYMATTR Prefix X
SYMBOL pnp 2304 -288 R270
SYMATTR InstName Q4
SYMATTR Value TIP42C
SYMBOL res 240 1408 R0
SYMATTR InstName R5
SYMATTR Value 50
SYMBOL res 784 -352 R0
SYMATTR InstName R6
SYMATTR Value 1k
SYMBOL zener 816 -48 R180
WINDOW 0 24 64 Left 2
WINDOW 3 24 0 Left 2
SYMATTR InstName D7
SYMATTR Value DI_1N4734A
SYMATTR Prefix X
SYMBOL res 944 -64 R180
WINDOW 0 36 76 Left 2
WINDOW 3 36 40 Left 2
SYMATTR InstName R11
SYMATTR Value 6.2k
SYMBOL res 944 48 R180
WINDOW 0 36 76 Left 2
WINDOW 3 36 40 Left 2
SYMATTR InstName R12
SYMATTR Value 3.8k
SYMBOL res 176 1280 R0
SYMATTR InstName R14
SYMATTR Value 0.1
SYMBOL res 2112 1296 R0
SYMATTR InstName R19
SYMATTR Value 0.1
SYMBOL res -912 2048 R90
WINDOW 0 0 56 VBottom 2
WINDOW 3 32 56 VTop 2
SYMATTR InstName R22
SYMATTR Value 3.3k
SYMBOL res -912 2144 R90
WINDOW 0 0 56 VBottom 2
WINDOW 3 32 56 VTop 2
SYMATTR InstName R23
SYMATTR Value 3.3k
SYMBOL res -816 2176 R0
SYMATTR InstName R24
SYMATTR Value 62k
SYMBOL res -624 1952 R90
WINDOW 0 0 56 VBottom 2
WINDOW 3 32 56 VTop 2
SYMATTR InstName R25
SYMATTR Value 62k
SYMBOL res -64 2112 R90
WINDOW 0 0 56 VBottom 2
WINDOW 3 32 56 VTop 2
SYMATTR InstName R26
SYMATTR Value 620
SYMBOL diode -16 2144 R270
WINDOW 0 32 32 VTop 2
WINDOW 3 0 32 VBottom 2
SYMATTR InstName D8
SYMATTR Value DI_1N4001
SYMBOL res 96 2144 R0
SYMATTR InstName R27
SYMATTR Value 10k
SYMBOL zener 448 2224 R180
WINDOW 0 24 64 Left 2
WINDOW 3 24 0 Left 2
SYMATTR InstName D11
SYMATTR Value DI_1N4734A
SYMATTR Prefix X
SYMBOL res 1168 2032 R90
WINDOW 0 0 56 VBottom 2
WINDOW 3 32 56 VTop 2
SYMATTR InstName R28
SYMATTR Value 3.3k
SYMBOL res 1168 2128 R90
WINDOW 0 0 56 VBottom 2
WINDOW 3 32 56 VTop 2
SYMATTR InstName R29
SYMATTR Value 3.3k
SYMBOL res 1264 2160 R0
SYMATTR InstName R30
SYMATTR Value 62k
SYMBOL res 1456 1936 R90
WINDOW 0 0 56 VBottom 2
WINDOW 3 32 56 VTop 2
SYMATTR InstName R31
SYMATTR Value 62k
SYMBOL diode 1984 2128 R270
WINDOW 0 32 32 VTop 2
WINDOW 3 0 32 VBottom 2
SYMATTR InstName D12
SYMATTR Value DI_1N4001
SYMBOL res 2096 2128 R0
SYMATTR InstName R33
SYMATTR Value 10k
SYMBOL OpAmps\\opamp2 128 752 R0
SYMATTR InstName U1
SYMATTR Value TL074
SYMBOL OpAmps\\opamp2 2064 768 R0
SYMATTR InstName U2
SYMATTR Value TL074
SYMBOL OpAmps\\opamp2 -672 2080 R0
SYMATTR InstName U3
SYMATTR Value TL074
SYMBOL OpAmps\\opamp2 -288 2064 R0
SYMATTR InstName U4
SYMATTR Value TL074
SYMBOL OpAmps\\opamp2 1408 2064 R0
SYMATTR InstName U5
SYMATTR Value TL074
SYMBOL OpAmps\\opamp2 1792 2048 R0
SYMATTR InstName U6
SYMATTR Value TL074
SYMBOL Digital\\dflop 2784 2016 R0
WINDOW 39 13 166 Left 2
SYMATTR SpiceLine Vhigh=5 Vlow=0.5 Ref=1.5
SYMATTR InstName A1
SYMBOL Digital\\dflop 3232 2016 R0
WINDOW 39 20 167 Left 2
SYMATTR SpiceLine Vhigh=5 Vlow=0.5 Ref=1.5
SYMATTR InstName A2
SYMBOL LED -736 2608 R0
SYMATTR InstName D13
SYMBOL res -736 2704 R0
SYMATTR InstName R35
SYMATTR Value 330
SYMBOL npn 16 2640 R0
SYMATTR InstName Q5
SYMATTR Value TIP41C
SYMBOL LED 992 2608 R0
SYMATTR InstName D14
SYMBOL res 992 2704 R0
SYMATTR InstName R38
SYMATTR Value 330
SYMBOL OpAmps\\opamp2 1824 2640 R0
SYMATTR InstName U7
SYMATTR Value TL074
SYMBOL pnp 2096 2656 R0
SYMATTR InstName Q6
SYMATTR Value TIP42C
SYMBOL res -16 2672 R90
WINDOW 0 0 56 VBottom 2
WINDOW 3 32 56 VTop 2
SYMATTR InstName R36
SYMATTR Value 6.2k
SYMBOL res 2080 2688 R90
WINDOW 0 0 56 VBottom 2
WINDOW 3 32 56 VTop 2
SYMATTR InstName R39
SYMATTR Value 6.2k
SYMBOL res 1888 2496 R90
WINDOW 0 0 56 VBottom 2
WINDOW 3 32 56 VTop 2
SYMATTR InstName R41
SYMATTR Value 10k
SYMBOL res 1712 2672 R90
WINDOW 0 0 56 VBottom 2
WINDOW 3 32 56 VTop 2
SYMATTR InstName R42
SYMATTR Value 10k
SYMBOL res 48 240 R90
WINDOW 0 0 56 VBottom 2
WINDOW 3 32 56 VTop 2
SYMATTR InstName R32
SYMATTR Value 1
SYMBOL res 48 -368 R90
WINDOW 0 0 56 VBottom 2
WINDOW 3 32 56 VTop 2
SYMATTR InstName R34
SYMATTR Value 1
SYMBOL npn 368 1568 R0
SYMATTR InstName Q7
SYMBOL res 416 1680 R0
SYMATTR InstName R43
SYMATTR Value 1
SYMBOL voltage 272 1680 R0
WINDOW 3 -227 191 Left 2
WINDOW 123 0 0 Left 0
WINDOW 39 0 0 Left 0
SYMATTR Value PULSE(0 3 0.515 1n 1n 5m 10m 1)
SYMATTR InstName V3
SYMBOL voltage -368 2720 R0
WINDOW 123 0 0 Left 0
WINDOW 39 0 0 Left 0
SYMATTR InstName V4
SYMATTR Value PULSE(0 5 0.530 1n 1n 5m 10m 1)
SYMBOL res 2176 1424 R0
SYMATTR InstName R37
SYMATTR Value 50
SYMBOL res 2352 1696 R0
SYMATTR InstName R44
SYMATTR Value 1
SYMBOL voltage 2208 1696 R0
WINDOW 3 -227 191 Left 2
WINDOW 123 0 0 Left 0
WINDOW 39 0 0 Left 0
SYMATTR Value PULSE(0 -3 0.550 1n 1n 5m 10m 1)
SYMATTR InstName V5
SYMBOL pnp 2304 1584 R0
SYMATTR InstName Q8
SYMBOL voltage 1280 2736 R0
WINDOW 123 0 0 Left 0
WINDOW 39 0 0 Left 0
SYMATTR InstName V6
SYMATTR Value PULSE(0 5 0.566 1n 1n 5m 10m 1)
TEXT 728 -544 Left 3 ;Fonte Auxiliar 2.1V
TEXT 1432 -544 Left 3 ;Fonte Auxiliar +5V
TEXT 2200 -544 Left 3 ;Fonte Auxiliar -5V
TEXT -928 440 Left 5 ;Parte Positiva
TEXT -928 512 Left 3 ;Tensão de Referência +
TEXT 48 520 Left 3 ;Amplificação+
TEXT 1008 456 Left 5 ;Parte Negativa
TEXT 1008 528 Left 3 ;Tensão de Referência -
TEXT 1984 536 Left 3 ;Amplificação-
TEXT -1992 128 Left 3 !.lib lib/1N473XA.lib
TEXT -1992 72 Left 5 ;Libs
TEXT -1992 160 Left 3 !.lib lib/TIP4XC.lib
TEXT -1992 192 Left 3 !.lib lib/1N4001.lib
TEXT -1992 224 Left 3 !.lib lib/TL074.lib
TEXT -1984 392 Left 2 !.tran 0 0.583 0.500 10u
TEXT -336 -544 Left 3 ;Retificação
TEXT -968 1744 Left 3 ;Proteção Digital +
TEXT 1000 1744 Left 3 ;Proteção Digital -
TEXT 2952 1792 Left 3 ;Flip Flops
TEXT -1992 336 Left 5 ;Diretivas
