.MODEL 2N2907A pnp
+IS=3.02341e-12 BF=523.064 NF=1.16335 VAF=44.2994
+IKF=0.591421 ISE=3.31443e-11 NE=1.9954 BR=4.8572
+NR=1.18959 VAR=1.33092 IKR=5.91421 ISC=3.31443e-11
+NC=3.81262 RB=2.76209 IRB=0.1 RBM=0.880912
+RE=0.0001 RC=0.857407 XTB=0.119647 XTI=1
+EG=1.05 CJE=3.934e-11 VJE=0.680693 MJE=0.379312
+TF=2.75919e-10 XTF=0.674951 VTF=54426.6 ITF=0.067962
+CJC=2.40198e-11 VJC=0.4 MJC=0.462796 XCJC=1
+FC=0.570446 CJS=0 VJS=0.75 MJS=0.5
+TR=1e-07 PTF=0 KF=0 AF=1

.MODEL 2N2222A npn
+IS=3.88184e-14 BF=929.846 NF=1.10496 VAF=16.5003
+IKF=0.019539 ISE=1.0168e-11 NE=1.94752 BR=48.4545
+NR=1.07004 VAR=40.538 IKR=0.19539 ISC=1.0168e-11
+NC=4 RB=0.1 IRB=0.1 RBM=0.1
+RE=0.0001 RC=0.426673 XTB=0.1 XTI=1
+EG=1.05 CJE=2.23677e-11 VJE=0.582701 MJE=0.63466
+TF=4.06711e-10 XTF=3.92912 VTF=17712.6 ITF=0.4334
+CJC=2.23943e-11 VJC=0.576146 MJC=0.632796 XCJC=1
+FC=0.170253 CJS=0 VJS=0.75 MJS=0.5
+TR=1e-07 PTF=0 KF=0 AF=1
